x0161
     RDKit          3D

 14 14  0  0  1  0  0  0  0  0999 V2000
   13.8921   -2.4077   24.1269 C   0  0  0  0  0  0  0  0  0  0  0  0
   13.4897   -0.2702   23.1446 C   0  0  0  0  0  0  0  0  0  0  0  0
   12.8011    1.0351   23.3277 C   0  0  0  0  0  0  0  0  0  0  0  0
   11.6117    1.1475   24.0810 C   0  0  0  0  0  0  0  0  0  0  0  0
   10.9808    2.3973   24.2401 C   0  0  0  0  0  0  0  0  0  0  0  0
   11.5348    3.5418   23.6347 C   0  0  0  0  0  0  0  0  0  0  0  0
   12.7111    3.4432   22.8672 C   0  0  0  0  0  0  0  0  0  0  0  0
   13.3408    2.1928   22.7264 C   0  0  0  0  0  0  0  0  0  0  0  0
    9.4491    5.0959   22.7844 N   0  0  0  0  0  0  0  0  0  0  0  0
   13.2656   -1.1348   24.1544 O   0  0  0  0  0  0  0  0  0  0  0  0
   14.2110   -0.5201   22.1789 O   0  0  0  0  0  0  0  0  0  0  0  0
   11.6894    6.1877   23.4320 O   0  0  0  0  0  0  0  0  0  0  0  0
   10.1931    5.1760   25.2380 O   0  0  0  0  0  0  0  0  0  0  0  0
   10.7644    5.1384   23.8833 S   0  0  0  0  0  0  0  0  0  0  0  0
  1 10  1  0
  2  3  1  0
  2 10  1  0
  2 11  2  0
  3  4  2  0
  3  8  1  0
  4  5  1  0
  5  6  2  0
  6  7  1  0
  6 14  1  0
  7  8  2  0
  9 14  1  0
 12 14  2  0
 13 14  2  0
M  END